<?xml version="1.0" encoding="UTF-8"?>

<!-- generated on 05/25/21 18:29:35 by Eclipse SUMO netedit Version 1.8.0
<configuration xmlns:xsi="http://www.w3.org/2001/XMLSchema-instance" xsi:noNamespaceSchemaLocation="http://sumo.dlr.de/xsd/netconvertConfiguration.xsd">

    <input>
        <sumo-net-file value="C:\Users\sumo\traci\demo.net.xml"/>
    </input>

    <output>
        <output-file value="C:\Users\sumo\traci\demo.net.xml"/>
    </output>

    <processing>
        <geometry.min-radius.fix.railways value="false"/>
        <geometry.max-grade.fix value="false"/>
        <offset.disable-normalization value="true"/>
        <lefthand value="false"/>
    </processing>

    <junctions>
        <no-turnarounds value="true"/>
        <junctions.corner-detail value="5"/>
        <junctions.limit-turn-speed value="5.5"/>
        <rectangular-lane-cut value="false"/>
    </junctions>

    <pedestrian>
        <walkingareas value="false"/>
    </pedestrian>

    <netedit>
        <route-files value="C:\Users\sumo\traci\demo.rou.xml"/>
    </netedit>

    <report>
        <aggregate-warnings value="5"/>
    </report>

</configuration>
-->

<routes xmlns:xsi="http://www.w3.org/2001/XMLSchema-instance" xsi:noNamespaceSchemaLocation="http://sumo.dlr.de/xsd/routes_file.xsd">
    <vType id="car" maxSpeed="10.00" accel="3.5" decel="2.2" sigma="1"/>
    <vType id="emergency_vehicle" length="7.00" maxSpeed="20.00" speedFactor="normc(2.00,0.00)" vClass="emergency" guiShape="emergency" minGapLat="0.20" accel="5.5" decel="2.2" sigma="1.0"/>
    <vType id="ElectricCar" accel="1.0" decel="1.0" length="6" maxSpeed="100.0" sigma="0.0" minGap="2.5" color="1,1,1">
        <param key="has.battery.device" value="true"/>
        <param key="maximumBatteryCapacity" value="2000"/>
        <param key="maximumPower" value="1000"/>
        <param key="vehicleMass" value="10000"/>
        <param key="frontSurfaceArea" value="5"/>
        <param key="airDragCoefficient" value="0.6"/>
        <param key="internalMomentOfInertia" value="0.01"/>
        <param key="radialDragCoefficient" value="0.5"/>
        <param key="rollDragCoefficient" value="0.01"/>
        <param key="constantPowerIntake" value="100"/>
        <param key="propulsionEfficiency" value="0.9"/>
        <param key="recuperationEfficiency" value="0.9"/>
        <param key="stoppingTreshold" value="0.1"/>
    </vType>
    <route edges="gneE0 gneE1 gneE2 gneE3 gneE4 gneE5 gneE6 gneE7 gneE8" color="yellow" id="route_0"/>
</routes>
