<?xml version="1.0" encoding="UTF-8"?>

<!-- generated on 05/27/21 14:34:53 by Eclipse SUMO netedit Version 1.8.0
<configuration xmlns:xsi="http://www.w3.org/2001/XMLSchema-instance" xsi:noNamespaceSchemaLocation="http://sumo.dlr.de/xsd/netconvertConfiguration.xsd">

    <input>
        <sumo-net-file value="C:\Users\sumo\traci\demo.net.xml"/>
    </input>

    <output>
        <output-file value="C:\Users\sumo\traci\demo.net.xml"/>
    </output>

    <processing>
        <geometry.min-radius.fix.railways value="false"/>
        <geometry.max-grade.fix value="false"/>
        <offset.disable-normalization value="true"/>
        <lefthand value="false"/>
    </processing>

    <junctions>
        <no-turnarounds value="true"/>
        <junctions.corner-detail value="5"/>
        <junctions.limit-turn-speed value="5.5"/>
        <rectangular-lane-cut value="false"/>
    </junctions>

    <pedestrian>
        <walkingareas value="false"/>
    </pedestrian>

    <netedit>
        <additional-files value="C:\Users\sumo\traci\demo.add.xml"/>
    </netedit>

    <report>
        <aggregate-warnings value="5"/>
    </report>

</configuration>
-->

<additional xmlns:xsi="http://www.w3.org/2001/XMLSchema-instance" xsi:noNamespaceSchemaLocation="http://sumo.dlr.de/xsd/additional_file.xsd">
    <chargingStation id="chargingStation_gneE2_0_1" lane="gneE2_2" startPos="20.00" endPos="27.00" friendlyPos="1" chargeInTransit="1"/>
    <chargingStation id="chargingStation_gneE6_0_1" lane="gneE6_2" startPos="25.00" endPos="32.00" friendlyPos="1" chargeInTransit="1"/>
</additional>
